data_image0
_chemical_formula_structural       LiPS3LiPS3LiPS3LiPS3LiPS3LiPS3LiPS3LiPS3Li4PS5Li4PS5Li4PS5Li4PS5Li4PS5Li4PS5Li4PS5Li4PS5Li5P2S8Li5P2S8Li5P2S8Li5P2S8Li5P2S8Li5P2S8Li5P2S8Li5P2S8Li5PS5Li5PS5Li5PS5Li5PS5Li5PS5Li5PS5Li5PS5Li5PS5Li2PS3Li2PS3Li2PS3Li2PS3Li2PS3Li2PS3Li2PS3Li2PS3Li128
_chemical_formula_sum              "Li264 P48 S192"
_cell_length_a       18.6558
_cell_length_b       19.9068
_cell_length_c       45.7718
_cell_angle_alpha    90
_cell_angle_beta     90
_cell_angle_gamma    22.9585

_space_group_name_H-M_alt    "P 1"
_space_group_IT_number       1

loop_
  _space_group_symop_operation_xyz
  'x, y, z'

loop_
  _atom_site_type_symbol
  _atom_site_label
  _atom_site_symmetry_multiplicity
  _atom_site_fract_x
  _atom_site_fract_y
  _atom_site_fract_z
  _atom_site_occupancy
  Li  Li1       1.0  0.32286  0.40702  0.08164  1.0000
  P   P1        1.0  0.49233  0.40697  0.03547  1.0000
  S   S1        1.0  0.23787  0.62515  0.01403  0.9700
  S   S2        1.0  0.45693  0.40702  0.07632  0.9800
  S   S3        1.0  0.26836  0.40703  0.03306  0.9900
  Li  Li2       1.0  0.32286  0.40702  0.17614  1.0000
  P   P2        1.0  0.49230  0.40699  0.12995  1.0000
  S   S4        1.0  0.23535  0.61902  0.10861  0.9700
  S   S5        1.0  0.45693  0.40702  0.17082  0.9800
  S   S6        1.0  0.26837  0.40703  0.12753  0.9900
  Li  Li3       1.0  0.32286  0.40702  0.27064  1.0000
  P   P3        1.0  0.49230  0.40699  0.22445  1.0000
  S   S7        1.0  0.23535  0.61902  0.20311  0.9700
  S   S8        1.0  0.45693  0.40702  0.26532  0.9800
  S   S9        1.0  0.26837  0.40703  0.22202  0.9900
  Li  Li4       1.0  0.32286  0.40702  0.36514  1.0000
  P   P4        1.0  0.49230  0.40699  0.31895  1.0000
  S   S10       1.0  0.23535  0.61902  0.29761  0.9700
  S   S11       1.0  0.45693  0.40702  0.35982  0.9800
  S   S12       1.0  0.26837  0.40703  0.31652  0.9900
  Li  Li5       1.0  0.32286  0.40702  0.45963  1.0000
  P   P5        1.0  0.49230  0.40699  0.41345  1.0000
  S   S13       1.0  0.23535  0.61902  0.39211  0.9700
  S   S14       1.0  0.45693  0.40702  0.45432  0.9800
  S   S15       1.0  0.26837  0.40703  0.41102  0.9900
  Li  Li6       1.0  0.32286  0.40702  0.55413  1.0000
  P   P6        1.0  0.49230  0.40699  0.50795  1.0000
  S   S16       1.0  0.23535  0.61902  0.48661  0.9700
  S   S17       1.0  0.45693  0.40702  0.54882  0.9800
  S   S18       1.0  0.26837  0.40703  0.50552  0.9900
  Li  Li7       1.0  0.32286  0.40702  0.64863  1.0000
  P   P7        1.0  0.49230  0.40699  0.60245  1.0000
  S   S19       1.0  0.23535  0.61902  0.58111  0.9700
  S   S20       1.0  0.45693  0.40702  0.64332  0.9800
  S   S21       1.0  0.26837  0.40703  0.60002  0.9900
  Li  Li8       1.0  0.32287  0.40701  0.74310  1.0000
  P   P8        1.0  0.49230  0.40699  0.69694  1.0000
  S   S22       1.0  0.23535  0.61902  0.67561  0.9700
  S   S23       1.0  0.45693  0.40703  0.73777  0.9800
  S   S24       1.0  0.26837  0.40703  0.69452  0.9900
  Li  Li9       1.0  0.41629  0.65739  0.01349  1.0000
  Li  Li10      1.0  0.25248  0.66349  0.10809  1.0000
  Li  Li11      1.0  0.32287  0.90702  0.04021  1.0000
  Li  Li12      1.0  0.65620  0.40702  0.08164  1.0000
  P   P9        1.0  0.82562  0.40700  0.03548  1.0000
  S   S25       1.0  0.32581  0.69513  0.10769  0.9700
  S   S26       1.0  0.57225  0.62443  0.01340  0.9700
  S   S27       1.0  0.79026  0.40702  0.07632  0.9800
  S   S28       1.0  0.26837  0.90703  0.08878  0.9900
  S   S29       1.0  0.60169  0.40701  0.03304  0.9900
  Li  Li13      1.0  0.43227  0.65045  0.10821  1.0000
  Li  Li14      1.0  0.25248  0.66349  0.20259  1.0000
  Li  Li15      1.0  0.32286  0.90702  0.13467  1.0000
  Li  Li16      1.0  0.65620  0.40702  0.17614  1.0000
  P   P10       1.0  0.82563  0.40699  0.12995  1.0000
  S   S30       1.0  0.32581  0.69513  0.20219  0.9700
  S   S31       1.0  0.56868  0.61902  0.10861  0.9700
  S   S32       1.0  0.79026  0.40702  0.17082  0.9800
  S   S33       1.0  0.26837  0.90703  0.18328  0.9900
  S   S34       1.0  0.60170  0.40703  0.12753  0.9900
  Li  Li17      1.0  0.43227  0.65045  0.20271  1.0000
  Li  Li18      1.0  0.25248  0.66349  0.29709  1.0000
  Li  Li19      1.0  0.32286  0.90702  0.22917  1.0000
  Li  Li20      1.0  0.65620  0.40702  0.27064  1.0000
  P   P11       1.0  0.82563  0.40699  0.22445  1.0000
  S   S35       1.0  0.32581  0.69513  0.29669  0.9700
  S   S36       1.0  0.56868  0.61902  0.20311  0.9700
  S   S37       1.0  0.79026  0.40702  0.26532  0.9800
  S   S38       1.0  0.26837  0.90703  0.27778  0.9900
  S   S39       1.0  0.60170  0.40703  0.22202  0.9900
  Li  Li21      1.0  0.43227  0.65045  0.29721  1.0000
  Li  Li22      1.0  0.25248  0.66349  0.39159  1.0000
  Li  Li23      1.0  0.32286  0.90702  0.32367  1.0000
  Li  Li24      1.0  0.65620  0.40702  0.36514  1.0000
  P   P12       1.0  0.82563  0.40699  0.31895  1.0000
  S   S40       1.0  0.32581  0.69513  0.39119  0.9700
  S   S41       1.0  0.56868  0.61902  0.29761  0.9700
  S   S42       1.0  0.79026  0.40702  0.35982  0.9800
  S   S43       1.0  0.26837  0.90703  0.37228  0.9900
  S   S44       1.0  0.60170  0.40703  0.31652  0.9900
  Li  Li25      1.0  0.43227  0.65045  0.39171  1.0000
  Li  Li26      1.0  0.25248  0.66349  0.48609  1.0000
  Li  Li27      1.0  0.32286  0.90702  0.41816  1.0000
  Li  Li28      1.0  0.65620  0.40702  0.45963  1.0000
  P   P13       1.0  0.82563  0.40699  0.41345  1.0000
  S   S45       1.0  0.32581  0.69513  0.48569  0.9700
  S   S46       1.0  0.56868  0.61902  0.39211  0.9700
  S   S47       1.0  0.79026  0.40702  0.45432  0.9800
  S   S48       1.0  0.26837  0.90703  0.46678  0.9900
  S   S49       1.0  0.60170  0.40703  0.41102  0.9900
  Li  Li29      1.0  0.43227  0.65045  0.48621  1.0000
  Li  Li30      1.0  0.25248  0.66349  0.58059  1.0000
  Li  Li31      1.0  0.32286  0.90702  0.51266  1.0000
  Li  Li32      1.0  0.65620  0.40702  0.55413  1.0000
  P   P14       1.0  0.82563  0.40699  0.50795  1.0000
  S   S50       1.0  0.32581  0.69513  0.58019  0.9700
  S   S51       1.0  0.56868  0.61902  0.48661  0.9700
  S   S52       1.0  0.79026  0.40702  0.54882  0.9800
  S   S53       1.0  0.26837  0.90703  0.56127  0.9900
  S   S54       1.0  0.60170  0.40703  0.50552  0.9900
  Li  Li33      1.0  0.43227  0.65045  0.58071  1.0000
  Li  Li34      1.0  0.25248  0.66349  0.67509  1.0000
  Li  Li35      1.0  0.32286  0.90702  0.60716  1.0000
  Li  Li36      1.0  0.65620  0.40702  0.64863  1.0000
  P   P15       1.0  0.82563  0.40699  0.60245  1.0000
  S   S55       1.0  0.32581  0.69513  0.67468  0.9700
  S   S56       1.0  0.56868  0.61902  0.58111  0.9700
  S   S57       1.0  0.79026  0.40702  0.64332  0.9800
  S   S58       1.0  0.26837  0.90703  0.65577  0.9900
  S   S59       1.0  0.60170  0.40703  0.60002  0.9900
  Li  Li37      1.0  0.43227  0.65045  0.67521  1.0000
  Li  Li38      1.0  0.25072  0.65669  0.77024  1.0000
  Li  Li39      1.0  0.32286  0.90702  0.70166  1.0000
  Li  Li40      1.0  0.65620  0.40703  0.74310  1.0000
  P   P16       1.0  0.82563  0.40699  0.69694  1.0000
  S   S60       1.0  0.34101  0.68875  0.76925  0.9700
  S   S61       1.0  0.56868  0.61902  0.67561  0.9700
  S   S62       1.0  0.79027  0.40702  0.73777  0.9800
  S   S63       1.0  0.26837  0.90701  0.75029  0.9900
  S   S64       1.0  0.60170  0.40703  0.69452  0.9900
  Li  Li41      1.0  0.24993  0.15729  0.01365  1.0000
  Li  Li42      1.0  0.75045  0.65680  0.01363  1.0000
  Li  Li43      1.0  0.58582  0.66349  0.10809  1.0000
  Li  Li44      1.0  0.65621  0.90701  0.04021  1.0000
  Li  Li45      1.0  0.98953  0.40702  0.08164  1.0000
  P   P17       1.0  0.49230  0.90699  0.08635  1.0000
  P   P18       1.0  0.15900  0.40695  0.03547  1.0000
  S   S65       1.0  0.23535  0.11902  0.10769  0.9700
  S   S66       1.0  0.65914  0.69513  0.10769  0.9700
  S   S67       1.0  0.33986  0.19009  0.01357  0.9700
  S   S68       1.0  0.90451  0.62531  0.01404  0.9700
  S   S69       1.0  0.45693  0.90703  0.04553  0.9800
  S   S70       1.0  0.12359  0.40702  0.07632  0.9800
  S   S71       1.0  0.60170  0.90703  0.08878  0.9900
  S   S72       1.0  0.93503  0.40705  0.03303  0.9900
  Li  Li46      1.0  0.25248  0.16349  0.10821  1.0000
  Li  Li47      1.0  0.76560  0.65045  0.10821  1.0000
  Li  Li48      1.0  0.58582  0.66349  0.20259  1.0000
  Li  Li49      1.0  0.65620  0.90702  0.13467  1.0000
  Li  Li50      1.0  0.98953  0.40702  0.17614  1.0000
  P   P19       1.0  0.49230  0.90699  0.18085  1.0000
  P   P20       1.0  0.15896  0.40699  0.12995  1.0000
  S   S73       1.0  0.23535  0.11902  0.20219  0.9700
  S   S74       1.0  0.65914  0.69513  0.20219  0.9700
  S   S75       1.0  0.32581  0.19513  0.10861  0.9700
  S   S76       1.0  0.90201  0.61902  0.10861  0.9700
  S   S77       1.0  0.45693  0.90702  0.13998  0.9800
  S   S78       1.0  0.12359  0.40702  0.17082  0.9800
  S   S79       1.0  0.60170  0.90703  0.18328  0.9900
  S   S80       1.0  0.93504  0.40703  0.12753  0.9900
  Li  Li51      1.0  0.25248  0.16349  0.20271  1.0000
  Li  Li52      1.0  0.76560  0.65045  0.20271  1.0000
  Li  Li53      1.0  0.58582  0.66349  0.29709  1.0000
  Li  Li54      1.0  0.65620  0.90702  0.22917  1.0000
  Li  Li55      1.0  0.98953  0.40702  0.27064  1.0000
  P   P21       1.0  0.49230  0.90699  0.27535  1.0000
  P   P22       1.0  0.15896  0.40699  0.22445  1.0000
  S   S81       1.0  0.23535  0.11902  0.29669  0.9700
  S   S82       1.0  0.65914  0.69513  0.29669  0.9700
  S   S83       1.0  0.32581  0.19513  0.20311  0.9700
  S   S84       1.0  0.90201  0.61902  0.20311  0.9700
  S   S85       1.0  0.45693  0.90702  0.23448  0.9800
  S   S86       1.0  0.12359  0.40702  0.26532  0.9800
  S   S87       1.0  0.60170  0.90703  0.27778  0.9900
  S   S88       1.0  0.93504  0.40703  0.22202  0.9900
  Li  Li56      1.0  0.25248  0.16349  0.29721  1.0000
  Li  Li57      1.0  0.76560  0.65045  0.29721  1.0000
  Li  Li58      1.0  0.58582  0.66349  0.39159  1.0000
  Li  Li59      1.0  0.65620  0.90702  0.32367  1.0000
  Li  Li60      1.0  0.98953  0.40702  0.36514  1.0000
  P   P23       1.0  0.49230  0.90699  0.36985  1.0000
  P   P24       1.0  0.15896  0.40699  0.31895  1.0000
  S   S89       1.0  0.23535  0.11902  0.39119  0.9700
  S   S90       1.0  0.65914  0.69513  0.39119  0.9700
  S   S91       1.0  0.32581  0.19513  0.29761  0.9700
  S   S92       1.0  0.90201  0.61902  0.29761  0.9700
  S   S93       1.0  0.45693  0.90702  0.32898  0.9800
  S   S94       1.0  0.12359  0.40702  0.35982  0.9800
  S   S95       1.0  0.60170  0.90703  0.37228  0.9900
  S   S96       1.0  0.93504  0.40703  0.31652  0.9900
  Li  Li61      1.0  0.25248  0.16349  0.39171  1.0000
  Li  Li62      1.0  0.76560  0.65045  0.39171  1.0000
  Li  Li63      1.0  0.58582  0.66349  0.48609  1.0000
  Li  Li64      1.0  0.65620  0.90702  0.41816  1.0000
  Li  Li65      1.0  0.98953  0.40702  0.45963  1.0000
  P   P25       1.0  0.49230  0.90699  0.46435  1.0000
  P   P26       1.0  0.15896  0.40699  0.41345  1.0000
  S   S97       1.0  0.23535  0.11902  0.48569  0.9700
  S   S98       1.0  0.65914  0.69513  0.48569  0.9700
  S   S99       1.0  0.32581  0.19513  0.39211  0.9700
  S   S100      1.0  0.90201  0.61902  0.39211  0.9700
  S   S101      1.0  0.45693  0.90702  0.42348  0.9800
  S   S102      1.0  0.12359  0.40702  0.45432  0.9800
  S   S103      1.0  0.60170  0.90703  0.46678  0.9900
  S   S104      1.0  0.93504  0.40703  0.41102  0.9900
  Li  Li66      1.0  0.25248  0.16349  0.48621  1.0000
  Li  Li67      1.0  0.76560  0.65045  0.48621  1.0000
  Li  Li68      1.0  0.58582  0.66349  0.58059  1.0000
  Li  Li69      1.0  0.65620  0.90702  0.51266  1.0000
  Li  Li70      1.0  0.98953  0.40702  0.55413  1.0000
  P   P27       1.0  0.49230  0.90699  0.55885  1.0000
  P   P28       1.0  0.15896  0.40699  0.50795  1.0000
  S   S105      1.0  0.23535  0.11902  0.58019  0.9700
  S   S106      1.0  0.65914  0.69513  0.58019  0.9700
  S   S107      1.0  0.32581  0.19513  0.48661  0.9700
  S   S108      1.0  0.90201  0.61902  0.48661  0.9700
  S   S109      1.0  0.45693  0.90702  0.51798  0.9800
  S   S110      1.0  0.12359  0.40702  0.54882  0.9800
  S   S111      1.0  0.60170  0.90703  0.56127  0.9900
  S   S112      1.0  0.93504  0.40703  0.50552  0.9900
  Li  Li71      1.0  0.25248  0.16349  0.58071  1.0000
  Li  Li72      1.0  0.76560  0.65045  0.58071  1.0000
  Li  Li73      1.0  0.58582  0.66349  0.67509  1.0000
  Li  Li74      1.0  0.65620  0.90702  0.60716  1.0000
  Li  Li75      1.0  0.98953  0.40702  0.64863  1.0000
  P   P29       1.0  0.49230  0.90699  0.65335  1.0000
  P   P30       1.0  0.15896  0.40699  0.60245  1.0000
  S   S113      1.0  0.23535  0.11902  0.67469  0.9700
  S   S114      1.0  0.65914  0.69513  0.67468  0.9700
  S   S115      1.0  0.32581  0.19513  0.58111  0.9700
  S   S116      1.0  0.90201  0.61902  0.58111  0.9700
  S   S117      1.0  0.45693  0.90702  0.61248  0.9800
  S   S118      1.0  0.12359  0.40702  0.64332  0.9800
  S   S119      1.0  0.60170  0.90703  0.65577  0.9900
  S   S120      1.0  0.93504  0.40703  0.60002  0.9900
  Li  Li76      1.0  0.25248  0.16349  0.67521  1.0000
  Li  Li77      1.0  0.76560  0.65045  0.67521  1.0000
  Li  Li78      1.0  0.58328  0.65736  0.76966  1.0000
  Li  Li79      1.0  0.65620  0.90702  0.70166  1.0000
  Li  Li80      1.0  0.98954  0.40701  0.74309  1.0000
  P   P31       1.0  0.49230  0.90699  0.74782  1.0000
  P   P32       1.0  0.15896  0.40699  0.69694  1.0000
  S   S121      1.0  0.23828  0.12533  0.76949  0.9700
  S   S122      1.0  0.67295  0.68946  0.76980  0.9700
  S   S123      1.0  0.32581  0.19513  0.67561  0.9700
  S   S124      1.0  0.90201  0.61902  0.67561  0.9700
  S   S125      1.0  0.45693  0.90702  0.70698  0.9800
  S   S126      1.0  0.12358  0.40704  0.73777  0.9800
  S   S127      1.0  0.60169  0.90705  0.75025  0.9900
  S   S128      1.0  0.93504  0.40703  0.69452  0.9900
  Li  Li81      1.0  0.58368  0.15648  0.01334  1.0000
  Li  Li82      1.0  0.08409  0.65652  0.01362  1.0000
  Li  Li83      1.0  0.43227  0.15045  0.10809  1.0000
  Li  Li84      1.0  0.91915  0.66349  0.10809  1.0000
  Li  Li85      1.0  0.98953  0.90702  0.04020  1.0000
  P   P33       1.0  0.82563  0.90699  0.08635  1.0000
  S   S129      1.0  0.56868  0.11902  0.10769  0.9700
  S   S130      1.0  0.99248  0.69513  0.10769  0.9700
  S   S131      1.0  0.67432  0.18881  0.01405  0.9700
  S   S132      1.0  0.79026  0.90703  0.04553  0.9800
  S   S133      1.0  0.93504  0.90703  0.08878  0.9900
  Li  Li86      1.0  0.58582  0.16349  0.10821  1.0000
  Li  Li87      1.0  0.09894  0.65045  0.10821  1.0000
  Li  Li88      1.0  0.43227  0.15045  0.20259  1.0000
  Li  Li89      1.0  0.91915  0.66349  0.20259  1.0000
  Li  Li90      1.0  0.98953  0.90702  0.13467  1.0000
  P   P34       1.0  0.82563  0.90699  0.18085  1.0000
  S   S134      1.0  0.56868  0.11902  0.20219  0.9700
  S   S135      1.0  0.99248  0.69513  0.20219  0.9700
  S   S136      1.0  0.65914  0.19513  0.10861  0.9700
  S   S137      1.0  0.79026  0.90702  0.13998  0.9800
  S   S138      1.0  0.93504  0.90703  0.18328  0.9900
  Li  Li91      1.0  0.58582  0.16349  0.20271  1.0000
  Li  Li92      1.0  0.09894  0.65045  0.20271  1.0000
  Li  Li93      1.0  0.43227  0.15045  0.29709  1.0000
  Li  Li94      1.0  0.91915  0.66349  0.29709  1.0000
  Li  Li95      1.0  0.98953  0.90702  0.22917  1.0000
  P   P35       1.0  0.82563  0.90699  0.27535  1.0000
  S   S139      1.0  0.56868  0.11902  0.29669  0.9700
  S   S140      1.0  0.99248  0.69513  0.29669  0.9700
  S   S141      1.0  0.65914  0.19513  0.20311  0.9700
  S   S142      1.0  0.79026  0.90702  0.23448  0.9800
  S   S143      1.0  0.93504  0.90703  0.27778  0.9900
  Li  Li96      1.0  0.58582  0.16349  0.29721  1.0000
  Li  Li97      1.0  0.09894  0.65045  0.29721  1.0000
  Li  Li98      1.0  0.43227  0.15045  0.39159  1.0000
  Li  Li99      1.0  0.91915  0.66349  0.39159  1.0000
  Li  Li100     1.0  0.98953  0.90702  0.32367  1.0000
  P   P36       1.0  0.82563  0.90699  0.36985  1.0000
  S   S144      1.0  0.56868  0.11902  0.39119  0.9700
  S   S145      1.0  0.99248  0.69513  0.39119  0.9700
  S   S146      1.0  0.65914  0.19513  0.29761  0.9700
  S   S147      1.0  0.79026  0.90702  0.32898  0.9800
  S   S148      1.0  0.93504  0.90703  0.37228  0.9900
  Li  Li101     1.0  0.58582  0.16349  0.39171  1.0000
  Li  Li102     1.0  0.09894  0.65045  0.39171  1.0000
  Li  Li103     1.0  0.43227  0.15045  0.48609  1.0000
  Li  Li104     1.0  0.91915  0.66349  0.48609  1.0000
  Li  Li105     1.0  0.98953  0.90702  0.41816  1.0000
  P   P37       1.0  0.82563  0.90699  0.46435  1.0000
  S   S149      1.0  0.56868  0.11902  0.48569  0.9700
  S   S150      1.0  0.99248  0.69513  0.48569  0.9700
  S   S151      1.0  0.65914  0.19513  0.39211  0.9700
  S   S152      1.0  0.79026  0.90702  0.42348  0.9800
  S   S153      1.0  0.93504  0.90703  0.46678  0.9900
  Li  Li106     1.0  0.58582  0.16349  0.48621  1.0000
  Li  Li107     1.0  0.09894  0.65045  0.48621  1.0000
  Li  Li108     1.0  0.43227  0.15045  0.58059  1.0000
  Li  Li109     1.0  0.91915  0.66349  0.58059  1.0000
  Li  Li110     1.0  0.98953  0.90702  0.51266  1.0000
  P   P38       1.0  0.82563  0.90699  0.55885  1.0000
  S   S154      1.0  0.56868  0.11902  0.58019  0.9700
  S   S155      1.0  0.99248  0.69513  0.58019  0.9700
  S   S156      1.0  0.65914  0.19513  0.48661  0.9700
  S   S157      1.0  0.79026  0.90702  0.51798  0.9800
  S   S158      1.0  0.93504  0.90703  0.56127  0.9900
  Li  Li111     1.0  0.58582  0.16349  0.58071  1.0000
  Li  Li112     1.0  0.09894  0.65045  0.58071  1.0000
  Li  Li113     1.0  0.43227  0.15045  0.67509  1.0000
  Li  Li114     1.0  0.91915  0.66349  0.67509  1.0000
  Li  Li115     1.0  0.98953  0.90702  0.60716  1.0000
  P   P39       1.0  0.82563  0.90699  0.65335  1.0000
  S   S159      1.0  0.56868  0.11902  0.67469  0.9700
  S   S160      1.0  0.99248  0.69513  0.67468  0.9700
  S   S161      1.0  0.65914  0.19513  0.58111  0.9700
  S   S162      1.0  0.79026  0.90702  0.61248  0.9800
  S   S163      1.0  0.93504  0.90703  0.65577  0.9900
  Li  Li116     1.0  0.58582  0.16349  0.67521  1.0000
  Li  Li117     1.0  0.09894  0.65045  0.67521  1.0000
  Li  Li118     1.0  0.41753  0.15639  0.76969  1.0000
  Li  Li119     1.0  0.91664  0.65716  0.76967  1.0000
  Li  Li120     1.0  0.98953  0.90702  0.70166  1.0000
  P   P40       1.0  0.82569  0.90694  0.74783  1.0000
  S   S164      1.0  0.57115  0.12528  0.76925  0.9700
  S   S165      1.0  0.00739  0.68925  0.76934  0.9700
  S   S166      1.0  0.65914  0.19513  0.67561  0.9700
  S   S167      1.0  0.79026  0.90702  0.70698  0.9800
  S   S168      1.0  0.93503  0.90703  0.75024  0.9900
  Li  Li121     1.0  0.91689  0.15743  0.01343  1.0000
  Li  Li122     1.0  0.76560  0.15045  0.10809  1.0000
  P   P41       1.0  0.15896  0.90699  0.08635  1.0000
  S   S169      1.0  0.90201  0.11902  0.10769  0.9700
  S   S170      1.0  0.00750  0.18879  0.01400  0.9700
  S   S171      1.0  0.12360  0.90702  0.04553  0.9800
  Li  Li123     1.0  0.91915  0.16349  0.10821  1.0000
  Li  Li124     1.0  0.76560  0.15045  0.20259  1.0000
  P   P42       1.0  0.15896  0.90699  0.18085  1.0000
  S   S172      1.0  0.90201  0.11902  0.20219  0.9700
  S   S173      1.0  0.99248  0.19513  0.10861  0.9700
  S   S174      1.0  0.12359  0.90702  0.13998  0.9800
  Li  Li125     1.0  0.91915  0.16349  0.20271  1.0000
  Li  Li126     1.0  0.76560  0.15045  0.29709  1.0000
  P   P43       1.0  0.15896  0.90699  0.27535  1.0000
  S   S175      1.0  0.90201  0.11902  0.29669  0.9700
  S   S176      1.0  0.99248  0.19513  0.20311  0.9700
  S   S177      1.0  0.12359  0.90702  0.23448  0.9800
  Li  Li127     1.0  0.91915  0.16349  0.29721  1.0000
  Li  Li128     1.0  0.76560  0.15045  0.39159  1.0000
  P   P44       1.0  0.15896  0.90699  0.36985  1.0000
  S   S178      1.0  0.90201  0.11902  0.39119  0.9700
  S   S179      1.0  0.99248  0.19513  0.29761  0.9700
  S   S180      1.0  0.12359  0.90702  0.32898  0.9800
  Li  Li129     1.0  0.91915  0.16349  0.39171  1.0000
  Li  Li130     1.0  0.76560  0.15045  0.48609  1.0000
  P   P45       1.0  0.15896  0.90699  0.46435  1.0000
  S   S181      1.0  0.90201  0.11902  0.48569  0.9700
  S   S182      1.0  0.99248  0.19513  0.39211  0.9700
  S   S183      1.0  0.12359  0.90702  0.42348  0.9800
  Li  Li131     1.0  0.91915  0.16349  0.48621  1.0000
  Li  Li132     1.0  0.76560  0.15045  0.58059  1.0000
  P   P46       1.0  0.15896  0.90699  0.55885  1.0000
  S   S184      1.0  0.90201  0.11902  0.58019  0.9700
  S   S185      1.0  0.99248  0.19513  0.48661  0.9700
  S   S186      1.0  0.12359  0.90702  0.51798  0.9800
  Li  Li133     1.0  0.91915  0.16349  0.58071  1.0000
  Li  Li134     1.0  0.76560  0.15045  0.67509  1.0000
  P   P47       1.0  0.15896  0.90699  0.65335  1.0000
  S   S187      1.0  0.90201  0.11902  0.67469  0.9700
  S   S188      1.0  0.99248  0.19513  0.58111  0.9700
  S   S189      1.0  0.12359  0.90702  0.61248  0.9800
  Li  Li135     1.0  0.91915  0.16349  0.67521  1.0000
  Li  Li136     1.0  0.75032  0.15681  0.76970  1.0000
  P   P48       1.0  0.15896  0.90699  0.74783  1.0000
  S   S190      1.0  0.90520  0.12409  0.76962  0.9700
  S   S191      1.0  0.99248  0.19513  0.67561  0.9700
  S   S192      1.0  0.12359  0.90702  0.70698  0.9800
  Li  Li137     1.0  0.09894  0.15045  0.10809  1.0000
  Li  Li138     1.0  0.09894  0.15045  0.20259  1.0000
  Li  Li139     1.0  0.09894  0.15045  0.29709  1.0000
  Li  Li140     1.0  0.09894  0.15045  0.39159  1.0000
  Li  Li141     1.0  0.09894  0.15045  0.48609  1.0000
  Li  Li142     1.0  0.09894  0.15045  0.58059  1.0000
  Li  Li143     1.0  0.09894  0.15045  0.67509  1.0000
  Li  Li144     1.0  0.08291  0.15770  0.76981  1.0000
  Li  Li145     1.0  0.94752  0.05115  0.79464  1.0000
  Li  Li146     1.0  0.94827  0.17496  0.83339  1.0000
  Li  Li147     1.0  0.94827  0.04996  0.83311  1.0000
  Li  Li148     1.0  0.94827  0.17496  0.87145  1.0000
  Li  Li149     1.0  0.94827  0.04996  0.87145  1.0000
  Li  Li150     1.0  0.94827  0.17496  0.90980  1.0000
  Li  Li151     1.0  0.94827  0.04996  0.90980  1.0000
  Li  Li152     1.0  0.94827  0.17496  0.94814  1.0000
  Li  Li153     1.0  0.94827  0.04996  0.94786  1.0000
  Li  Li154     1.0  0.94813  0.17484  0.98650  1.0000
  Li  Li155     1.0  0.94921  0.29898  0.79487  1.0000
  Li  Li156     1.0  0.94827  0.42496  0.83339  1.0000
  Li  Li157     1.0  0.94827  0.29996  0.83311  1.0000
  Li  Li158     1.0  0.94827  0.42496  0.87145  1.0000
  Li  Li159     1.0  0.94827  0.29996  0.87145  1.0000
  Li  Li160     1.0  0.94827  0.42496  0.90980  1.0000
  Li  Li161     1.0  0.94827  0.29996  0.90980  1.0000
  Li  Li162     1.0  0.94827  0.42496  0.94814  1.0000
  Li  Li163     1.0  0.94827  0.29996  0.94786  1.0000
  Li  Li164     1.0  0.94823  0.42501  0.98625  1.0000
  Li  Li165     1.0  0.28118  0.13320  0.79478  1.0000
  Li  Li166     1.0  0.28160  0.25830  0.83339  1.0000
  Li  Li167     1.0  0.28160  0.13330  0.83311  1.0000
  Li  Li168     1.0  0.28160  0.25830  0.87145  1.0000
  Li  Li169     1.0  0.28160  0.13330  0.87145  1.0000
  Li  Li170     1.0  0.28160  0.25830  0.90980  1.0000
  Li  Li171     1.0  0.28160  0.13330  0.90980  1.0000
  Li  Li172     1.0  0.28160  0.25830  0.94814  1.0000
  Li  Li173     1.0  0.28160  0.13330  0.94786  1.0000
  Li  Li174     1.0  0.28264  0.25707  0.98671  1.0000
  Li  Li175     1.0  0.94824  0.55010  0.79501  1.0000
  Li  Li176     1.0  0.94827  0.67496  0.83339  1.0000
  Li  Li177     1.0  0.94827  0.54996  0.83311  1.0000
  Li  Li178     1.0  0.94827  0.67496  0.87145  1.0000
  Li  Li179     1.0  0.94827  0.54996  0.87145  1.0000
  Li  Li180     1.0  0.94827  0.67496  0.90980  1.0000
  Li  Li181     1.0  0.94827  0.54996  0.90980  1.0000
  Li  Li182     1.0  0.94827  0.67496  0.94814  1.0000
  Li  Li183     1.0  0.94827  0.54996  0.94786  1.0000
  Li  Li184     1.0  0.94827  0.67493  0.98623  1.0000
  Li  Li185     1.0  0.61493  0.09163  0.83338  1.0000
  Li  Li186     1.0  0.61494  0.09163  0.87145  1.0000
  Li  Li187     1.0  0.61494  0.09163  0.90980  1.0000
  Li  Li188     1.0  0.61494  0.09163  0.94814  1.0000
  Li  Li189     1.0  0.61456  0.09241  0.98653  1.0000
  Li  Li190     1.0  0.28168  0.38323  0.79503  1.0000
  Li  Li191     1.0  0.28160  0.50830  0.83339  1.0000
  Li  Li192     1.0  0.28160  0.38330  0.83311  1.0000
  Li  Li193     1.0  0.28160  0.50830  0.87145  1.0000
  Li  Li194     1.0  0.28160  0.38330  0.87145  1.0000
  Li  Li195     1.0  0.28160  0.50830  0.90980  1.0000
  Li  Li196     1.0  0.28160  0.38330  0.90980  1.0000
  Li  Li197     1.0  0.28160  0.50830  0.94814  1.0000
  Li  Li198     1.0  0.28160  0.38330  0.94786  1.0000
  Li  Li199     1.0  0.28125  0.50865  0.98627  1.0000
  Li  Li200     1.0  0.94844  0.79959  0.79492  1.0000
  Li  Li201     1.0  0.94827  0.92496  0.83339  1.0000
  Li  Li202     1.0  0.94827  0.79996  0.83311  1.0000
  Li  Li203     1.0  0.94827  0.92496  0.87145  1.0000
  Li  Li204     1.0  0.94827  0.79996  0.87145  1.0000
  Li  Li205     1.0  0.94827  0.92496  0.90980  1.0000
  Li  Li206     1.0  0.94827  0.79996  0.90980  1.0000
  Li  Li207     1.0  0.94827  0.92496  0.94814  1.0000
  Li  Li208     1.0  0.94827  0.79996  0.94786  1.0000
  Li  Li209     1.0  0.94824  0.92499  0.98623  1.0000
  Li  Li210     1.0  0.61520  0.21651  0.79500  1.0000
  Li  Li211     1.0  0.61494  0.34163  0.83339  1.0000
  Li  Li212     1.0  0.61494  0.21663  0.83311  1.0000
  Li  Li213     1.0  0.61494  0.34163  0.87145  1.0000
  Li  Li214     1.0  0.61494  0.21663  0.87145  1.0000
  Li  Li215     1.0  0.61494  0.34163  0.90980  1.0000
  Li  Li216     1.0  0.61494  0.21663  0.90980  1.0000
  Li  Li217     1.0  0.61494  0.34163  0.94814  1.0000
  Li  Li218     1.0  0.61494  0.21663  0.94786  1.0000
  Li  Li219     1.0  0.61494  0.34161  0.98624  1.0000
  Li  Li220     1.0  0.28087  0.63388  0.79444  1.0000
  Li  Li221     1.0  0.28161  0.75829  0.83338  1.0000
  Li  Li222     1.0  0.28160  0.63330  0.83311  1.0000
  Li  Li223     1.0  0.28160  0.75830  0.87145  1.0000
  Li  Li224     1.0  0.28160  0.63330  0.87145  1.0000
  Li  Li225     1.0  0.28160  0.75830  0.90980  1.0000
  Li  Li226     1.0  0.28160  0.63330  0.90980  1.0000
  Li  Li227     1.0  0.28160  0.75830  0.94814  1.0000
  Li  Li228     1.0  0.28160  0.63330  0.94786  1.0000
  Li  Li229     1.0  0.28246  0.75766  0.98638  1.0000
  Li  Li230     1.0  0.61484  0.46670  0.79502  1.0000
  Li  Li231     1.0  0.61494  0.59163  0.83339  1.0000
  Li  Li232     1.0  0.61494  0.46663  0.83311  1.0000
  Li  Li233     1.0  0.61494  0.59163  0.87145  1.0000
  Li  Li234     1.0  0.61494  0.46663  0.87145  1.0000
  Li  Li235     1.0  0.61494  0.59163  0.90980  1.0000
  Li  Li236     1.0  0.61494  0.46663  0.90980  1.0000
  Li  Li237     1.0  0.61494  0.59163  0.94814  1.0000
  Li  Li238     1.0  0.61494  0.46663  0.94786  1.0000
  Li  Li239     1.0  0.61390  0.59242  0.98687  1.0000
  Li  Li240     1.0  0.28161  0.88331  0.79499  1.0000
  Li  Li241     1.0  0.28160  0.00830  0.83339  1.0000
  Li  Li242     1.0  0.28160  0.88330  0.83311  1.0000
  Li  Li243     1.0  0.28160  0.00830  0.87145  1.0000
  Li  Li244     1.0  0.28160  0.88330  0.87145  1.0000
  Li  Li245     1.0  0.28160  0.00830  0.90980  1.0000
  Li  Li246     1.0  0.28160  0.88330  0.90980  1.0000
  Li  Li247     1.0  0.28160  0.00830  0.94814  1.0000
  Li  Li248     1.0  0.28160  0.88330  0.94786  1.0000
  Li  Li249     1.0  0.28156  0.00833  0.98621  1.0000
  Li  Li250     1.0  0.61621  0.71598  0.79446  1.0000
  Li  Li251     1.0  0.61494  0.84163  0.83339  1.0000
  Li  Li252     1.0  0.61494  0.71663  0.83311  1.0000
  Li  Li253     1.0  0.61494  0.84163  0.87145  1.0000
  Li  Li254     1.0  0.61494  0.71663  0.87145  1.0000
  Li  Li255     1.0  0.61494  0.84163  0.90980  1.0000
  Li  Li256     1.0  0.61494  0.71663  0.90980  1.0000
  Li  Li257     1.0  0.61494  0.84163  0.94814  1.0000
  Li  Li258     1.0  0.61494  0.71663  0.94786  1.0000
  Li  Li259     1.0  0.61509  0.84144  0.98623  1.0000
  Li  Li260     1.0  0.61456  0.96698  0.79498  1.0000
  Li  Li261     1.0  0.61494  0.96663  0.83311  1.0000
  Li  Li262     1.0  0.61494  0.96663  0.87145  1.0000
  Li  Li263     1.0  0.61494  0.96663  0.90980  1.0000
  Li  Li264     1.0  0.61494  0.96663  0.94786  1.0000
