384
Lattice="0.0 18.4095 0.0 7.70829 18.4095 0.0 0.0 0.0 -46.60308223283216" Properties=species:S:1:pos:R:3:spacegroup_kinds:I:1 spacegroup="P m n 21" unit_cell=conventional occupancy="_JSON {\"0\": {\"Li\": 1.0}, \"1\": {\"Li\": 1.0}, \"2\": {\"P\": 1.0}, \"3\": {\"S\": 0.97}, \"4\": {\"S\": 0.98}, \"5\": {\"S\": 0.99}}" pbc="T T T"
Li       0.00000077       2.98242352      -9.11008545        1
P        0.00000077       6.10104558      -6.99856512        2
S        1.68312868       5.43508298      -6.01768505        3
S        0.00000077       5.44983807      -8.86847627        4
S        0.00000077       1.98060553      -6.88792262        5
Li       0.00000077       2.98242352     -13.43547073        1
P        0.00000077       6.10104558     -11.32395040        2
S        1.68312868       5.43508298     -10.34307033        3
S        0.00000077       5.44983807     -13.19386154        4
S        0.00000077       1.98060553     -11.21330790        5
Li       0.00000077       2.98242352     -17.76085601        1
P        0.00000077       6.10104558     -15.64933568        2
S        1.68312868       5.43508298     -14.66845561        3
S        0.00000077       5.44983807     -17.51924682        4
S        0.00000077       1.98060553     -15.53869318        5
Li       0.00000077       2.98242352     -22.08624129        1
P        0.00000077       6.10104558     -19.97472096        2
S        1.68312868       5.43508298     -18.99384089        3
S        0.00000077       5.44983807     -21.84463210        4
S        0.00000077       1.98060553     -19.86407846        5
Li       0.00000077       2.98242352     -26.41162657        1
P        0.00000077       6.10104558     -24.30010624        2
S        1.68312868       5.43508298     -23.31922617        3
S        0.00000077       5.44983807     -26.17001738        4
S        0.00000077       1.98060553     -24.18946374        5
Li       0.00000077       2.98242352     -30.73701185        1
P        0.00000077       6.10104558     -28.62549152        2
S        1.68312868       5.43508298     -27.64461145        3
S        0.00000077       5.44983807     -30.49540266        4
S        0.00000077       1.98060553     -28.51484902        5
Li       0.00000077       2.98242352     -35.06239713        1
P        0.00000077       6.10104558     -32.95087680        2
S        1.68312868       5.43508298     -31.96999672        3
S        0.00000077       5.44983807     -34.82078794        4
S        0.00000077       1.98060553     -32.84023429        5
Li       0.00000077       2.98242352     -39.38778241        1
P        0.00000077       6.10104558     -37.27626208        2
S        1.68312868       5.43508298     -36.29538200        3
S        0.00000077       5.44983807     -39.14617322        4
S        0.00000077       1.98060553     -37.16561957        5
Li       1.92533890       9.31492647      -6.00000000        0
Li       1.92880610       6.24667647     -10.32538528        0
Li       3.85414500      12.18717352      -7.21529983        1
Li       0.00000077       9.11892352      -9.11008545        1
P        0.00000077      12.23754558      -6.99856512        2
S        2.17101632       8.50333298     -10.30770023        3
S        1.68312868      11.57158298      -6.01768505        3
S        0.00000077      11.58633807      -8.86847627        4
S        3.85414500      11.18535553      -9.43746266        5
S        0.00000077       8.11710553      -6.88792262        5
Li       1.92533890       9.31492647     -10.32538528        0
Li       1.92880610       6.24667647     -14.65077056        0
Li       3.85414500      12.18717352     -11.54068511        1
Li       0.00000077       9.11892352     -13.43547073        1
P        0.00000077      12.23754558     -11.32395040        2
S        2.17101632       8.50333298     -14.63308551        3
S        1.68312868      11.57158298     -10.34307033        3
S        0.00000077      11.58633807     -13.19386154        4
S        3.85414500      11.18535553     -13.76284794        5
S        0.00000077       8.11710553     -11.21330790        5
Li       1.92533890       9.31492647     -14.65077056        0
Li       1.92880610       6.24667647     -18.97615584        0
Li       3.85414500      12.18717352     -15.86607038        1
Li       0.00000077       9.11892352     -17.76085601        1
P        0.00000077      12.23754558     -15.64933568        2
S        2.17101632       8.50333298     -18.95847079        3
S        1.68312868      11.57158298     -14.66845561        3
S        0.00000077      11.58633807     -17.51924682        4
S        3.85414500      11.18535553     -18.08823322        5
S        0.00000077       8.11710553     -15.53869318        5
Li       1.92533890       9.31492647     -18.97615584        0
Li       1.92880610       6.24667647     -23.30154112        0
Li       3.85414500      12.18717352     -20.19145566        1
Li       0.00000077       9.11892352     -22.08624129        1
P        0.00000077      12.23754558     -19.97472096        2
S        2.17101632       8.50333298     -23.28385607        3
S        1.68312868      11.57158298     -18.99384089        3
S        0.00000077      11.58633807     -21.84463210        4
S        3.85414500      11.18535553     -22.41361850        5
S        0.00000077       8.11710553     -19.86407846        5
Li       1.92533890       9.31492647     -23.30154112        0
Li       1.92880610       6.24667647     -27.62692640        0
Li       3.85414500      12.18717352     -24.51684094        1
Li       0.00000077       9.11892352     -26.41162657        1
P        0.00000077      12.23754558     -24.30010624        2
S        2.17101632       8.50333298     -27.60924135        3
S        1.68312868      11.57158298     -23.31922617        3
S        0.00000077      11.58633807     -26.17001738        4
S        3.85414500      11.18535553     -26.73900378        5
S        0.00000077       8.11710553     -24.18946374        5
Li       1.92533890       9.31492647     -27.62692640        0
Li       1.92880610       6.24667647     -31.95231167        0
Li       3.85414500      12.18717352     -28.84222622        1
Li       0.00000077       9.11892352     -30.73701185        1
P        0.00000077      12.23754558     -28.62549152        2
S        2.17101632       8.50333298     -31.93462662        3
S        1.68312868      11.57158298     -27.64461145        3
S        0.00000077      11.58633807     -30.49540266        4
S        3.85414500      11.18535553     -31.06438905        5
S        0.00000077       8.11710553     -28.51484902        5
Li       1.92533890       9.31492647     -31.95231167        0
Li       1.92880610       6.24667647     -36.27769695        0
Li       3.85414500      12.18717352     -33.16761150        1
Li       0.00000077       9.11892352     -35.06239713        1
P        0.00000077      12.23754558     -32.95087680        2
S        2.17101632       8.50333298     -36.26001190        3
S        1.68312868      11.57158298     -31.96999672        3
S        0.00000077      11.58633807     -34.82078794        4
S        3.85414500      11.18535553     -35.38977433        5
S        0.00000077       8.11710553     -32.84023429        5
Li       1.92533890       9.31492647     -36.27769695        0
Li       1.92880610       6.24667647     -40.60308223        0
Li       3.85414500      12.18717352     -37.49299678        1
Li       0.00000077       9.11892352     -39.38778241        1
P        0.00000077      12.23754558     -37.27626208        2
S        2.17101632       8.50333298     -40.58539718        3
S        1.68312868      11.57158298     -36.29538200        3
S        0.00000077      11.58633807     -39.14617322        4
S        3.85414500      11.18535553     -39.71515961        5
S        0.00000077       8.11710553     -37.16561957        5
Li       5.78295110      15.45142647      -6.00000000        0
Li       1.92533890      15.45142647      -6.00000000        0
Li       1.92880610      12.38317647     -10.32538528        0
Li       3.85414500      18.32367352      -7.21529983        1
Li       0.00000077      15.25542352      -9.11008545        1
P        3.85414500      15.30579558      -9.32682016        2
P        0.00000077      18.37404558      -6.99856512        2
S        5.53727368      14.63983298     -10.30770023        3
S        2.17101632      14.63983298     -10.30770023        3
S        6.02516132      17.70808298      -6.01768505        3
S        1.68312868      17.70808298      -6.01768505        3
S        3.85414500      14.65458807      -7.45690901        4
S        0.00000077      17.72283807      -8.86847627        4
S        3.85414500      17.32185553      -9.43746266        5
S        0.00000077      14.25360553      -6.88792262        5
Li       5.78295110      15.45142647     -10.32538528        0
Li       1.92533890      15.45142647     -10.32538528        0
Li       1.92880610      12.38317647     -14.65077056        0
Li       3.85414500      18.32367352     -11.54068511        1
Li       0.00000077      15.25542352     -13.43547073        1
P        3.85414500      15.30579558     -13.65220544        2
P        0.00000077      18.37404558     -11.32395040        2
S        5.53727368      14.63983298     -14.63308551        3
S        2.17101632      14.63983298     -14.63308551        3
S        6.02516132      17.70808298     -10.34307033        3
S        1.68312868      17.70808298     -10.34307033        3
S        3.85414500      14.65458807     -11.78229429        4
S        0.00000077      17.72283807     -13.19386154        4
S        3.85414500      17.32185553     -13.76284794        5
S        0.00000077      14.25360553     -11.21330790        5
Li       5.78295110      15.45142647     -14.65077056        0
Li       1.92533890      15.45142647     -14.65077056        0
Li       1.92880610      12.38317647     -18.97615584        0
Li       3.85414500      18.32367352     -15.86607038        1
Li       0.00000077      15.25542352     -17.76085601        1
P        3.85414500      15.30579558     -17.97759071        2
P        0.00000077      18.37404558     -15.64933568        2
S        5.53727368      14.63983298     -18.95847079        3
S        2.17101632      14.63983298     -18.95847079        3
S        6.02516132      17.70808298     -14.66845561        3
S        1.68312868      17.70808298     -14.66845561        3
S        3.85414500      14.65458807     -16.10767957        4
S        0.00000077      17.72283807     -17.51924682        4
S        3.85414500      17.32185553     -18.08823322        5
S        0.00000077      14.25360553     -15.53869318        5
Li       5.78295110      15.45142647     -18.97615584        0
Li       1.92533890      15.45142647     -18.97615584        0
Li       1.92880610      12.38317647     -23.30154112        0
Li       3.85414500      18.32367352     -20.19145566        1
Li       0.00000077      15.25542352     -22.08624129        1
P        3.85414500      15.30579558     -22.30297599        2
P        0.00000077      18.37404558     -19.97472096        2
S        5.53727368      14.63983298     -23.28385607        3
S        2.17101632      14.63983298     -23.28385607        3
S        6.02516132      17.70808298     -18.99384089        3
S        1.68312868      17.70808298     -18.99384089        3
S        3.85414500      14.65458807     -20.43306485        4
S        0.00000077      17.72283807     -21.84463210        4
S        3.85414500      17.32185553     -22.41361850        5
S        0.00000077      14.25360553     -19.86407846        5
Li       5.78295110      15.45142647     -23.30154112        0
Li       1.92533890      15.45142647     -23.30154112        0
Li       1.92880610      12.38317647     -27.62692640        0
Li       3.85414500      18.32367352     -24.51684094        1
Li       0.00000077      15.25542352     -26.41162657        1
P        3.85414500      15.30579558     -26.62836127        2
P        0.00000077      18.37404558     -24.30010624        2
S        5.53727368      14.63983298     -27.60924135        3
S        2.17101632      14.63983298     -27.60924135        3
S        6.02516132      17.70808298     -23.31922617        3
S        1.68312868      17.70808298     -23.31922617        3
S        3.85414500      14.65458807     -24.75845013        4
S        0.00000077      17.72283807     -26.17001738        4
S        3.85414500      17.32185553     -26.73900378        5
S        0.00000077      14.25360553     -24.18946374        5
Li       5.78295110      15.45142647     -27.62692640        0
Li       1.92533890      15.45142647     -27.62692640        0
Li       1.92880610      12.38317647     -31.95231167        0
Li       3.85414500      18.32367352     -28.84222622        1
Li       0.00000077      15.25542352     -30.73701185        1
P        3.85414500      15.30579558     -30.95374655        2
P        0.00000077      18.37404558     -28.62549152        2
S        5.53727368      14.63983298     -31.93462662        3
S        2.17101632      14.63983298     -31.93462662        3
S        6.02516132      17.70808298     -27.64461145        3
S        1.68312868      17.70808298     -27.64461145        3
S        3.85414500      14.65458807     -29.08383541        4
S        0.00000077      17.72283807     -30.49540266        4
S        3.85414500      17.32185553     -31.06438905        5
S        0.00000077      14.25360553     -28.51484902        5
Li       5.78295110      15.45142647     -31.95231167        0
Li       1.92533890      15.45142647     -31.95231167        0
Li       1.92880610      12.38317647     -36.27769695        0
Li       3.85414500      18.32367352     -33.16761150        1
Li       0.00000077      15.25542352     -35.06239713        1
P        3.85414500      15.30579558     -35.27913183        2
P        0.00000077      18.37404558     -32.95087680        2
S        5.53727368      14.63983298     -36.26001190        3
S        2.17101632      14.63983298     -36.26001190        3
S        6.02516132      17.70808298     -31.96999672        3
S        1.68312868      17.70808298     -31.96999672        3
S        3.85414500      14.65458807     -33.40922069        4
S        0.00000077      17.72283807     -34.82078794        4
S        3.85414500      17.32185553     -35.38977433        5
S        0.00000077      14.25360553     -32.84023429        5
Li       5.78295110      15.45142647     -36.27769695        0
Li       1.92533890      15.45142647     -36.27769695        0
Li       1.92880610      12.38317647     -40.60308223        0
Li       3.85414500      18.32367352     -37.49299678        1
Li       0.00000077      15.25542352     -39.38778241        1
P        3.85414500      15.30579558     -39.60451711        2
P        0.00000077      18.37404558     -37.27626208        2
S        5.53727368      14.63983298     -40.58539718        3
S        2.17101632      14.63983298     -40.58539718        3
S        6.02516132      17.70808298     -36.29538200        3
S        1.68312868      17.70808298     -36.29538200        3
S        3.85414500      14.65458807     -37.73460597        4
S        0.00000077      17.72283807     -39.14617322        4
S        3.85414500      17.32185553     -39.71515961        5
S        0.00000077      14.25360553     -37.16561957        5
Li       5.78295110      21.58792647      -6.00000000        0
Li       1.92533890      21.58792647      -6.00000000        0
Li       5.77948390      18.51967647     -10.32538528        0
Li       1.92880610      18.51967647     -10.32538528        0
Li       3.85414500      24.46017352      -7.21529983        1
P        3.85414500      21.44229558      -9.32682016        2
S        5.53727368      20.77633298     -10.30770023        3
S        2.17101632      20.77633298     -10.30770023        3
S        6.02516132      23.84458298      -6.01768505        3
S        3.85414500      20.79108807      -7.45690901        4
S        3.85414500      23.45835553      -9.43746266        5
Li       5.78295110      21.58792647     -10.32538528        0
Li       1.92533890      21.58792647     -10.32538528        0
Li       5.77948390      18.51967647     -14.65077056        0
Li       1.92880610      18.51967647     -14.65077056        0
Li       3.85414500      24.46017352     -11.54068511        1
P        3.85414500      21.44229558     -13.65220544        2
S        5.53727368      20.77633298     -14.63308551        3
S        2.17101632      20.77633298     -14.63308551        3
S        6.02516132      23.84458298     -10.34307033        3
S        3.85414500      20.79108807     -11.78229429        4
S        3.85414500      23.45835553     -13.76284794        5
Li       5.78295110      21.58792647     -14.65077056        0
Li       1.92533890      21.58792647     -14.65077056        0
Li       5.77948390      18.51967647     -18.97615584        0
Li       1.92880610      18.51967647     -18.97615584        0
Li       3.85414500      24.46017352     -15.86607038        1
P        3.85414500      21.44229558     -17.97759071        2
S        5.53727368      20.77633298     -18.95847079        3
S        2.17101632      20.77633298     -18.95847079        3
S        6.02516132      23.84458298     -14.66845561        3
S        3.85414500      20.79108807     -16.10767957        4
S        3.85414500      23.45835553     -18.08823322        5
Li       5.78295110      21.58792647     -18.97615584        0
Li       1.92533890      21.58792647     -18.97615584        0
Li       5.77948390      18.51967647     -23.30154112        0
Li       1.92880610      18.51967647     -23.30154112        0
Li       3.85414500      24.46017352     -20.19145566        1
P        3.85414500      21.44229558     -22.30297599        2
S        5.53727368      20.77633298     -23.28385607        3
S        2.17101632      20.77633298     -23.28385607        3
S        6.02516132      23.84458298     -18.99384089        3
S        3.85414500      20.79108807     -20.43306485        4
S        3.85414500      23.45835553     -22.41361850        5
Li       5.78295110      21.58792647     -23.30154112        0
Li       1.92533890      21.58792647     -23.30154112        0
Li       5.77948390      18.51967647     -27.62692640        0
Li       1.92880610      18.51967647     -27.62692640        0
Li       3.85414500      24.46017352     -24.51684094        1
P        3.85414500      21.44229558     -26.62836127        2
S        5.53727368      20.77633298     -27.60924135        3
S        2.17101632      20.77633298     -27.60924135        3
S        6.02516132      23.84458298     -23.31922617        3
S        3.85414500      20.79108807     -24.75845013        4
S        3.85414500      23.45835553     -26.73900378        5
Li       5.78295110      21.58792647     -27.62692640        0
Li       1.92533890      21.58792647     -27.62692640        0
Li       5.77948390      18.51967647     -31.95231167        0
Li       1.92880610      18.51967647     -31.95231167        0
Li       3.85414500      24.46017352     -28.84222622        1
P        3.85414500      21.44229558     -30.95374655        2
S        5.53727368      20.77633298     -31.93462662        3
S        2.17101632      20.77633298     -31.93462662        3
S        6.02516132      23.84458298     -27.64461145        3
S        3.85414500      20.79108807     -29.08383541        4
S        3.85414500      23.45835553     -31.06438905        5
Li       5.78295110      21.58792647     -31.95231167        0
Li       1.92533890      21.58792647     -31.95231167        0
Li       5.77948390      18.51967647     -36.27769695        0
Li       1.92880610      18.51967647     -36.27769695        0
Li       3.85414500      24.46017352     -33.16761150        1
P        3.85414500      21.44229558     -35.27913183        2
S        5.53727368      20.77633298     -36.26001190        3
S        2.17101632      20.77633298     -36.26001190        3
S        6.02516132      23.84458298     -31.96999672        3
S        3.85414500      20.79108807     -33.40922069        4
S        3.85414500      23.45835553     -35.38977433        5
Li       5.78295110      21.58792647     -36.27769695        0
Li       1.92533890      21.58792647     -36.27769695        0
Li       5.77948390      18.51967647     -40.60308223        0
Li       1.92880610      18.51967647     -40.60308223        0
Li       3.85414500      24.46017352     -37.49299678        1
P        3.85414500      21.44229558     -39.60451711        2
S        5.53727368      20.77633298     -40.58539718        3
S        2.17101632      20.77633298     -40.58539718        3
S        6.02516132      23.84458298     -36.29538200        3
S        3.85414500      20.79108807     -37.73460597        4
S        3.85414500      23.45835553     -39.71515961        5
Li       5.78295110      27.72442647      -6.00000000        0
Li       5.77948390      24.65617647     -10.32538528        0
P        3.85414500      27.57879558      -9.32682016        2
S        5.53727368      26.91283298     -10.30770023        3
S        6.02516132      29.98108298      -6.01768505        3
S        3.85414500      26.92758807      -7.45690901        4
Li       5.78295110      27.72442647     -10.32538528        0
Li       5.77948390      24.65617647     -14.65077056        0
P        3.85414500      27.57879558     -13.65220544        2
S        5.53727368      26.91283298     -14.63308551        3
S        6.02516132      29.98108298     -10.34307033        3
S        3.85414500      26.92758807     -11.78229429        4
Li       5.78295110      27.72442647     -14.65077056        0
Li       5.77948390      24.65617647     -18.97615584        0
P        3.85414500      27.57879558     -17.97759071        2
S        5.53727368      26.91283298     -18.95847079        3
S        6.02516132      29.98108298     -14.66845561        3
S        3.85414500      26.92758807     -16.10767957        4
Li       5.78295110      27.72442647     -18.97615584        0
Li       5.77948390      24.65617647     -23.30154112        0
P        3.85414500      27.57879558     -22.30297599        2
S        5.53727368      26.91283298     -23.28385607        3
S        6.02516132      29.98108298     -18.99384089        3
S        3.85414500      26.92758807     -20.43306485        4
Li       5.78295110      27.72442647     -23.30154112        0
Li       5.77948390      24.65617647     -27.62692640        0
P        3.85414500      27.57879558     -26.62836127        2
S        5.53727368      26.91283298     -27.60924135        3
S        6.02516132      29.98108298     -23.31922617        3
S        3.85414500      26.92758807     -24.75845013        4
Li       5.78295110      27.72442647     -27.62692640        0
Li       5.77948390      24.65617647     -31.95231167        0
P        3.85414500      27.57879558     -30.95374655        2
S        5.53727368      26.91283298     -31.93462662        3
S        6.02516132      29.98108298     -27.64461145        3
S        3.85414500      26.92758807     -29.08383541        4
Li       5.78295110      27.72442647     -31.95231167        0
Li       5.77948390      24.65617647     -36.27769695        0
P        3.85414500      27.57879558     -35.27913183        2
S        5.53727368      26.91283298     -36.26001190        3
S        6.02516132      29.98108298     -31.96999672        3
S        3.85414500      26.92758807     -33.40922069        4
Li       5.78295110      27.72442647     -36.27769695        0
Li       5.77948390      24.65617647     -40.60308223        0
P        3.85414500      27.57879558     -39.60451711        2
S        5.53727368      26.91283298     -40.58539718        3
S        6.02516132      29.98108298     -36.29538200        3
S        3.85414500      26.92758807     -37.73460597        4
Li       5.77948390      30.79267647     -10.32538528        0
Li       5.77948390      30.79267647     -14.65077056        0
Li       5.77948390      30.79267647     -18.97615584        0
Li       5.77948390      30.79267647     -23.30154112        0
Li       5.77948390      30.79267647     -27.62692640        0
Li       5.77948390      30.79267647     -31.95231167        0
Li       5.77948390      30.79267647     -36.27769695        0
Li       5.77948390      30.79267647     -40.60308223        0
