data_image0
_chemical_formula_structural       Cl32Na204O32
_chemical_formula_sum              "Cl32 Na204 O32"
_cell_length_a       12.6029
_cell_length_b       17.8936
_cell_length_c       43.1539
_cell_angle_alpha    90.2488
_cell_angle_beta     90.2266
_cell_angle_gamma    44.7824

_space_group_name_H-M_alt    "P 1"
_space_group_IT_number       1

loop_
  _space_group_symop_operation_xyz
  'x, y, z'

loop_
  _atom_site_type_symbol
  _atom_site_label
  _atom_site_symmetry_multiplicity
  _atom_site_fract_x
  _atom_site_fract_y
  _atom_site_fract_z
  _atom_site_occupancy
  Cl  Cl1       1.0  0.15119  0.04850  0.07795  1.0000
  Cl  Cl2       1.0  0.15051  0.05687  0.18498  1.0000
  Cl  Cl3       1.0  0.15225  0.05438  0.29001  1.0000
  Cl  Cl4       1.0  0.15425  0.05158  0.39157  1.0000
  Cl  Cl5       1.0  0.16207  0.29240  0.08246  1.0000
  Cl  Cl6       1.0  0.15055  0.30703  0.18531  1.0000
  Cl  Cl7       1.0  0.15276  0.30355  0.29036  1.0000
  Cl  Cl8       1.0  0.15159  0.30369  0.39146  1.0000
  Cl  Cl9       1.0  0.15472  0.55495  0.08230  1.0000
  Cl  Cl10      1.0  0.15139  0.55637  0.18527  1.0000
  Cl  Cl11      1.0  0.15210  0.55512  0.28944  1.0000
  Cl  Cl12      1.0  0.15120  0.55397  0.39234  1.0000
  Cl  Cl13      1.0  0.15166  0.80365  0.07668  1.0000
  Cl  Cl14      1.0  0.14837  0.80754  0.18527  1.0000
  Cl  Cl15      1.0  0.15301  0.80263  0.29099  1.0000
  Cl  Cl16      1.0  0.15533  0.81952  0.39547  1.0000
  Cl  Cl17      1.0  0.65158  0.04722  0.08194  1.0000
  Cl  Cl18      1.0  0.64979  0.05400  0.18478  1.0000
  Cl  Cl19      1.0  0.65073  0.05037  0.28793  1.0000
  Cl  Cl20      1.0  0.67038  0.03042  0.39393  1.0000
  Cl  Cl21      1.0  0.65666  0.29556  0.08071  1.0000
  Cl  Cl22      1.0  0.64961  0.30349  0.18510  1.0000
  Cl  Cl23      1.0  0.65376  0.29903  0.28824  1.0000
  Cl  Cl24      1.0  0.66223  0.29879  0.39175  1.0000
  Cl  Cl25      1.0  0.64132  0.54828  0.08382  1.0000
  Cl  Cl26      1.0  0.65030  0.55288  0.18548  1.0000
  Cl  Cl27      1.0  0.65260  0.54948  0.28784  1.0000
  Cl  Cl28      1.0  0.64008  0.54820  0.39267  1.0000
  Cl  Cl29      1.0  0.64355  0.80459  0.08219  1.0000
  Cl  Cl30      1.0  0.65223  0.80353  0.18565  1.0000
  Cl  Cl31      1.0  0.65032  0.80034  0.28800  1.0000
  Cl  Cl32      1.0  0.64505  0.80528  0.39108  1.0000
  Na  Na1       1.0  0.36698  0.06479  0.08149  1.0000
  Na  Na2       1.0  0.15461  0.17201  0.02041  1.0000
  Na  Na3       1.0  0.42919  0.03012  0.18551  1.0000
  Na  Na4       1.0  0.15196  0.18781  0.14053  1.0000
  Na  Na5       1.0  0.37888  0.06950  0.28972  1.0000
  Na  Na6       1.0  0.15164  0.18917  0.23183  1.0000
  Na  Na7       1.0  0.42288  0.04338  0.39350  1.0000
  Na  Na8       1.0  0.15257  0.16093  0.34587  1.0000
  Na  Na9       1.0  0.39476  0.17962  0.03487  1.0000
  Na  Na10      1.0  0.44761  0.27331  0.08271  1.0000
  Na  Na11      1.0  0.14360  0.43036  0.04329  1.0000
  Na  Na12      1.0  0.42184  0.16561  0.13527  1.0000
  Na  Na13      1.0  0.37326  0.32083  0.18583  1.0000
  Na  Na14      1.0  0.14990  0.41492  0.12804  1.0000
  Na  Na15      1.0  0.42695  0.16495  0.23513  1.0000
  Na  Na16      1.0  0.43729  0.27856  0.28985  1.0000
  Na  Na17      1.0  0.15207  0.41518  0.24414  1.0000
  Na  Na18      1.0  0.36845  0.19484  0.34260  1.0000
  Na  Na19      1.0  0.36281  0.32874  0.39335  1.0000
  Na  Na20      1.0  0.15223  0.44205  0.33478  1.0000
  Na  Na21      1.0  0.40187  0.42350  0.03843  1.0000
  Na  Na22      1.0  0.37052  0.57850  0.08182  1.0000
  Na  Na23      1.0  0.15327  0.66855  0.02229  1.0000
  Na  Na24      1.0  0.37754  0.43903  0.13189  1.0000
  Na  Na25      1.0  0.43029  0.53040  0.18567  1.0000
  Na  Na26      1.0  0.15146  0.68557  0.14108  1.0000
  Na  Na27      1.0  0.37652  0.44067  0.24079  1.0000
  Na  Na28      1.0  0.38101  0.57326  0.28971  1.0000
  Na  Na29      1.0  0.15133  0.68958  0.23247  1.0000
  Na  Na30      1.0  0.43909  0.40866  0.33790  1.0000
  Na  Na31      1.0  0.42198  0.52885  0.39329  1.0000
  Na  Na32      1.0  0.15262  0.65865  0.34328  1.0000
  Na  Na33      1.0  0.40575  0.66993  0.02409  1.0000
  Na  Na34      1.0  0.43289  0.78100  0.07941  1.0000
  Na  Na35      1.0  0.15274  0.92319  0.03071  1.0000
  Na  Na36      1.0  0.42889  0.66294  0.13615  1.0000
  Na  Na37      1.0  0.36304  0.82577  0.18537  1.0000
  Na  Na38      1.0  0.15116  0.91177  0.12542  1.0000
  Na  Na39      1.0  0.42743  0.66492  0.23449  1.0000
  Na  Na40      1.0  0.42698  0.78144  0.29007  1.0000
  Na  Na41      1.0  0.15056  0.91373  0.24410  1.0000
  Na  Na42      1.0  0.37343  0.69159  0.34729  1.0000
  Na  Na43      1.0  0.38180  0.82523  0.39357  1.0000
  Na  Na44      1.0  0.15243  0.94010  0.33826  1.0000
  Na  Na45      1.0  0.40839  0.92224  0.02672  1.0000
  Na  Na46      1.0  0.37757  0.93712  0.13122  1.0000
  Na  Na47      1.0  0.37562  0.94015  0.24071  1.0000
  Na  Na48      1.0  0.43004  0.91407  0.33934  1.0000
  Na  Na49      1.0  0.87112  0.05866  0.07860  1.0000
  Na  Na50      1.0  0.63926  0.18191  0.01651  1.0000
  Na  Na51      1.0  0.93476  0.04227  0.18499  1.0000
  Na  Na52      1.0  0.65350  0.18787  0.13997  1.0000
  Na  Na53      1.0  0.87454  0.05765  0.29044  1.0000
  Na  Na54      1.0  0.65233  0.19135  0.23235  1.0000
  Na  Na55      1.0  0.92906  0.05127  0.39431  1.0000
  Na  Na56      1.0  0.65234  0.16220  0.35047  1.0000
  Na  Na57      1.0  0.89916  0.17695  0.02848  1.0000
  Na  Na58      1.0  0.93717  0.29141  0.08083  1.0000
  Na  Na59      1.0  0.65490  0.42574  0.03886  1.0000
  Na  Na60      1.0  0.92766  0.16257  0.12853  1.0000
  Na  Na61      1.0  0.87720  0.30126  0.18532  1.0000
  Na  Na62      1.0  0.65238  0.41524  0.12727  1.0000
  Na  Na63      1.0  0.92736  0.16398  0.24148  1.0000
  Na  Na64      1.0  0.92573  0.29645  0.28950  1.0000
  Na  Na65      1.0  0.65220  0.41651  0.24333  1.0000
  Na  Na66      1.0  0.87492  0.19168  0.33988  1.0000
  Na  Na67      1.0  0.88605  0.31453  0.39329  1.0000
  Na  Na68      1.0  0.65211  0.44417  0.33875  1.0000
  Na  Na69      1.0  0.91618  0.42271  0.02526  1.0000
  Na  Na70      1.0  0.84320  0.56846  0.08430  1.0000
  Na  Na71      1.0  0.66565  0.66911  0.01776  1.0000
  Na  Na72      1.0  0.87910  0.43659  0.13846  1.0000
  Na  Na73      1.0  0.93419  0.54317  0.18627  1.0000
  Na  Na74      1.0  0.64820  0.68952  0.14206  1.0000
  Na  Na75      1.0  0.87673  0.43959  0.23430  1.0000
  Na  Na76      1.0  0.86822  0.56147  0.28948  1.0000
  Na  Na77      1.0  0.65036  0.69181  0.23229  1.0000
  Na  Na78      1.0  0.93590  0.41135  0.34249  1.0000
  Na  Na79      1.0  0.93181  0.54465  0.39311  1.0000
  Na  Na80      1.0  0.65235  0.66307  0.34855  1.0000
  Na  Na81      1.0  0.90220  0.67102  0.03773  1.0000
  Na  Na82      1.0  0.93725  0.79422  0.08144  1.0000
  Na  Na83      1.0  0.65310  0.92350  0.03937  1.0000
  Na  Na84      1.0  0.92112  0.66656  0.13057  1.0000
  Na  Na85      1.0  0.87535  0.80686  0.18556  1.0000
  Na  Na86      1.0  0.65089  0.91699  0.12749  1.0000
  Na  Na87      1.0  0.92447  0.66682  0.24150  1.0000
  Na  Na88      1.0  0.92213  0.80494  0.28974  1.0000
  Na  Na89      1.0  0.65096  0.91697  0.24339  1.0000
  Na  Na90      1.0  0.86859  0.69413  0.33681  1.0000
  Na  Na91      1.0  0.88321  0.79591  0.39296  1.0000
  Na  Na92      1.0  0.65285  0.94446  0.33890  1.0000
  Na  Na93      1.0  0.90028  0.92200  0.02211  1.0000
  Na  Na94      1.0  0.87554  0.93995  0.13652  1.0000
  Na  Na95      1.0  0.87452  0.94169  0.23372  1.0000
  Na  Na96      1.0  0.93258  0.91192  0.34798  1.0000
  Na  Na97      1.0  0.16722  0.06647  0.48995  1.0000
  Na  Na98      1.0  0.16249  0.27276  0.45461  1.0000
  Na  Na99      1.0  0.16831  0.06365  0.59577  1.0000
  Na  Na100     1.0  0.16909  0.22620  0.54873  1.0000
  Na  Na101     1.0  0.16720  0.06763  0.68994  1.0000
  Na  Na102     1.0  0.17152  0.22891  0.64320  1.0000
  Na  Na103     1.0  0.16726  0.07353  0.78357  1.0000
  Na  Na104     1.0  0.17181  0.23374  0.73532  1.0000
  Na  Na105     1.0  0.16778  0.08540  0.87116  1.0000
  Na  Na106     1.0  0.16604  0.25030  0.82790  1.0000
  Na  Na107     1.0  0.16639  0.07259  0.94761  1.0000
  Na  Na108     1.0  0.16620  0.26703  0.93238  1.0000
  Na  Na109     1.0  0.47910  0.06419  0.50264  1.0000
  Na  Na110     1.0  0.50153  0.23331  0.47005  1.0000
  Na  Na111     1.0  0.50338  0.06506  0.59631  1.0000
  Na  Na112     1.0  0.52027  0.22630  0.55122  1.0000
  Na  Na113     1.0  0.50655  0.06593  0.68883  1.0000
  Na  Na114     1.0  0.50984  0.23203  0.64286  1.0000
  Na  Na115     1.0  0.49864  0.07109  0.78278  1.0000
  Na  Na116     1.0  0.50843  0.23226  0.73634  1.0000
  Na  Na117     1.0  0.46921  0.07816  0.88067  1.0000
  Na  Na118     1.0  0.49849  0.23891  0.83172  1.0000
  Na  Na119     1.0  0.45573  0.04704  0.97748  1.0000
  Na  Na120     1.0  0.53200  0.22237  0.92084  1.0000
  Na  Na121     1.0  0.17535  0.39910  0.51200  1.0000
  Na  Na122     1.0  0.15896  0.55364  0.45705  1.0000
  Na  Na123     1.0  0.17601  0.39148  0.59779  1.0000
  Na  Na124     1.0  0.16618  0.56679  0.55388  1.0000
  Na  Na125     1.0  0.17634  0.39690  0.68779  1.0000
  Na  Na126     1.0  0.16992  0.56923  0.64290  1.0000
  Na  Na127     1.0  0.17725  0.39900  0.77993  1.0000
  Na  Na128     1.0  0.16925  0.56924  0.73497  1.0000
  Na  Na129     1.0  0.17016  0.40794  0.88007  1.0000
  Na  Na130     1.0  0.16593  0.56565  0.82671  1.0000
  Na  Na131     1.0  0.30836  0.34916  0.98109  1.0000
  Na  Na132     1.0  0.16369  0.56485  0.92898  1.0000
  Na  Na133     1.0  0.85727  0.06731  0.50295  1.0000
  Na  Na134     1.0  0.75741  0.26392  0.45480  1.0000
  Na  Na135     1.0  0.84825  0.06533  0.59828  1.0000
  Na  Na136     1.0  0.83912  0.23022  0.54764  1.0000
  Na  Na137     1.0  0.84026  0.06742  0.69019  1.0000
  Na  Na138     1.0  0.83856  0.23351  0.64355  1.0000
  Na  Na139     1.0  0.84023  0.06879  0.78366  1.0000
  Na  Na140     1.0  0.83493  0.23620  0.73725  1.0000
  Na  Na141     1.0  0.84894  0.06585  0.87093  1.0000
  Na  Na142     1.0  0.81774  0.25265  0.83029  1.0000
  Na  Na143     1.0  0.91986  0.04293  0.97168  1.0000
  Na  Na144     1.0  0.79657  0.24541  0.91818  1.0000
  Na  Na145     1.0  0.47976  0.42395  0.50622  1.0000
  Na  Na146     1.0  0.55400  0.56901  0.45590  1.0000
  Na  Na147     1.0  0.50934  0.40218  0.59604  1.0000
  Na  Na148     1.0  0.51105  0.57351  0.54699  1.0000
  Na  Na149     1.0  0.50529  0.40058  0.68911  1.0000
  Na  Na150     1.0  0.50163  0.57072  0.64317  1.0000
  Na  Na151     1.0  0.49837  0.40448  0.78248  1.0000
  Na  Na152     1.0  0.50235  0.56929  0.73698  1.0000
  Na  Na153     1.0  0.46981  0.42975  0.87944  1.0000
  Na  Na154     1.0  0.51725  0.56616  0.83056  1.0000
  Na  Na155     1.0  0.44958  0.49239  0.97823  1.0000
  Na  Na156     1.0  0.53841  0.57351  0.92326  1.0000
  Na  Na157     1.0  0.16990  0.71966  0.50355  1.0000
  Na  Na158     1.0  0.16565  0.86697  0.45673  1.0000
  Na  Na159     1.0  0.17051  0.73682  0.59526  1.0000
  Na  Na160     1.0  0.16748  0.90117  0.54721  1.0000
  Na  Na161     1.0  0.16924  0.73655  0.68941  1.0000
  Na  Na162     1.0  0.17062  0.90022  0.64419  1.0000
  Na  Na163     1.0  0.16968  0.73369  0.78321  1.0000
  Na  Na164     1.0  0.17343  0.89960  0.73795  1.0000
  Na  Na165     1.0  0.16777  0.72880  0.87283  1.0000
  Na  Na166     1.0  0.19189  0.89147  0.82621  1.0000
  Na  Na167     1.0  0.16233  0.75864  0.95042  1.0000
  Na  Na168     1.0  0.18266  0.90201  0.90758  1.0000
  Na  Na169     1.0  0.85296  0.37851  0.50313  1.0000
  Na  Na170     1.0  0.83690  0.56841  0.47304  1.0000
  Na  Na171     1.0  0.83726  0.39670  0.59627  1.0000
  Na  Na172     1.0  0.82315  0.57412  0.55228  1.0000
  Na  Na173     1.0  0.83585  0.40163  0.68896  1.0000
  Na  Na174     1.0  0.83242  0.57081  0.64281  1.0000
  Na  Na175     1.0  0.83900  0.40276  0.78157  1.0000
  Na  Na176     1.0  0.83993  0.56777  0.73475  1.0000
  Na  Na177     1.0  0.86369  0.39347  0.88168  1.0000
  Na  Na178     1.0  0.85144  0.56243  0.82935  1.0000
  Na  Na179     1.0  0.85756  0.33399  0.97588  1.0000
  Na  Na180     1.0  0.85001  0.56892  0.93940  1.0000
  Na  Na181     1.0  0.47783  0.75519  0.50386  1.0000
  Na  Na182     1.0  0.57243  0.85259  0.45495  1.0000
  Na  Na183     1.0  0.49213  0.74226  0.59783  1.0000
  Na  Na184     1.0  0.49419  0.90231  0.54799  1.0000
  Na  Na185     1.0  0.50158  0.73643  0.68978  1.0000
  Na  Na186     1.0  0.49687  0.90361  0.64353  1.0000
  Na  Na187     1.0  0.51768  0.72971  0.78185  1.0000
  Na  Na188     1.0  0.50001  0.90398  0.73687  1.0000
  Na  Na189     1.0  0.54013  0.72282  0.87644  1.0000
  Na  Na190     1.0  0.51552  0.89609  0.83009  1.0000
  Na  Na191     1.0  0.39491  0.80237  0.97290  1.0000
  Na  Na192     1.0  0.54640  0.87019  0.92409  1.0000
  Na  Na193     1.0  0.84779  0.74343  0.50708  1.0000
  Na  Na194     1.0  0.78778  0.94867  0.45710  1.0000
  Na  Na195     1.0  0.82454  0.74682  0.59628  1.0000
  Na  Na196     1.0  0.82865  0.91795  0.54709  1.0000
  Na  Na197     1.0  0.83104  0.74082  0.68872  1.0000
  Na  Na198     1.0  0.84071  0.90301  0.64297  1.0000
  Na  Na199     1.0  0.83460  0.73622  0.78147  1.0000
  Na  Na200     1.0  0.83766  0.90292  0.73733  1.0000
  Na  Na201     1.0  0.85742  0.72731  0.87938  1.0000
  Na  Na202     1.0  0.82191  0.90800  0.83022  1.0000
  Na  Na203     1.0  0.86183  0.78591  0.97787  1.0000
  Na  Na204     1.0  0.80291  0.93634  0.91962  1.0000
  O   O1        1.0  0.40619  0.05015  0.02868  1.0000
  O   O2        1.0  0.40010  0.05081  0.13345  1.0000
  O   O3        1.0  0.40097  0.05282  0.23743  1.0000
  O   O4        1.0  0.40253  0.05363  0.34161  1.0000
  O   O5        1.0  0.39201  0.30524  0.03087  1.0000
  O   O6        1.0  0.40209  0.30163  0.13358  1.0000
  O   O7        1.0  0.40168  0.30282  0.23785  1.0000
  O   O8        1.0  0.40347  0.30196  0.34210  1.0000
  O   O9        1.0  0.40652  0.54346  0.02906  1.0000
  O   O10       1.0  0.40070  0.55227  0.13366  1.0000
  O   O11       1.0  0.40173  0.55307  0.23754  1.0000
  O   O12       1.0  0.40117  0.55184  0.34182  1.0000
  O   O13       1.0  0.41147  0.79380  0.02562  1.0000
  O   O14       1.0  0.39998  0.80160  0.13276  1.0000
  O   O15       1.0  0.39938  0.80336  0.23743  1.0000
  O   O16       1.0  0.40498  0.80078  0.34191  1.0000
  O   O17       1.0  0.89341  0.05264  0.02476  1.0000
  O   O18       1.0  0.90230  0.05075  0.13196  1.0000
  O   O19       1.0  0.90228  0.05206  0.23750  1.0000
  O   O20       1.0  0.89962  0.05329  0.34250  1.0000
  O   O21       1.0  0.90202  0.30367  0.02788  1.0000
  O   O22       1.0  0.90366  0.29951  0.13299  1.0000
  O   O23       1.0  0.90227  0.30164  0.23723  1.0000
  O   O24       1.0  0.90298  0.30356  0.34141  1.0000
  O   O25       1.0  0.89897  0.55054  0.03504  1.0000
  O   O26       1.0  0.89868  0.55244  0.13457  1.0000
  O   O27       1.0  0.90187  0.55260  0.23785  1.0000
  O   O28       1.0  0.90158  0.55302  0.34154  1.0000
  O   O29       1.0  0.90025  0.79568  0.02888  1.0000
  O   O30       1.0  0.90221  0.80183  0.13320  1.0000
  O   O31       1.0  0.90099  0.80376  0.23754  1.0000
  O   O32       1.0  0.90408  0.80061  0.34165  1.0000
